[General]
network = Net
experiment-label = ${configname}
fname-append-host = false
warmup-period = 0.5s
sim-time-limit = 1s
#tkenv-default-run = 2
total-stack = 7MiB
tkenv-plugin-path = ./plugins
num-rngs = 1
record-eventlog = false
**.result-recording-modes = all
#cmd config
cmdenv-express-mode=true
cmdenv-interactive=true

# tcp settings                                                                                                                                                                

**.param-record-as-scalar = false
**.tcp.sendQueueClass = "TCPMsgBasedSendQueue"
**.tcp.receiveQueueClass = "TCPMsgBasedRcvQueue"
**.tcp.tcpAlgorithmClass = "TCPNewReno"
**.tcp.increasedIWEnabled = true
**.tcp.windowScalingSupport = true
**.tcp.mss = 1000
#

# tcp apps
#**.numTcpApps = 1

**.client[*].testType = "Test"
**.client[*].Test.startTime = 0.00008s
**.client[*].Test.nbSender = 1
**.client[*].Test.msgSize = 10000
**.client[*].RRBType = "RRBproto"
**.client[*].RRB.port = 1000
**.client[*].RRB.connectAddress =" "
**.client[*].RRB.connectPort = 1001

*.n = 10
**.client[*].RRB.nbNodes = 10
**.client[*].RRB.t = 0

# NIC configuration
#**.ppp[*].queueType = "DropTailQueue" # in routers
#**.ppp[*].queue.frameCapacity = 10  # in routers

#*.configurator.networkAddress = "10.0.0.0"
*.configurator.networkAddress = "192.168.1.0"

# Ethernet NIC configuration
**.eth[*].mac.txrate = 10Mbps
**.eth[*].mac.duplexEnabled = true

# Queues
**.ppp[*].queueType = "DropTailQueue"
**.ppp[*].queue.frameCapacity = 14000
**.eth[*].queueType = "DropTailQueue"
**.eth[*].queue.frameCapacity = 10

# Ethernet switch
**.switch*.relayUnitType = "MACRelayUnitNP"
**.relayUnit.addressTableSize = 100
**.relayUnit.agingTime = 120s
**.relayUnit.bufferSize = 1MiB
**.relayUnit.highWatermark = 512KiB
**.relayUnit.pauseUnits = 300  # pause for 300*512 bit (19200 byte) time
**.relayUnit.addressTableFile = ""
**.relayUnit.numCPUs = 2
**.relayUnit.processingTime = 2us

**.mac[*].txrate = 0   # autoconfig
**.mac[*].duplexEnabled = true

[Config One]
**.client[*].Test.nbSender = 1

[Config two]
**.client[*].Test.nbSender = 2
